<?xml version="1.0" encoding="UTF-8"?>

<!-- generated on 2022-01-16 22:02:36 by Eclipse SUMO netedit Version 1.10.0
<configuration xmlns:xsi="http://www.w3.org/2001/XMLSchema-instance" xsi:noNamespaceSchemaLocation="http://sumo.dlr.de/xsd/netconvertConfiguration.xsd">

    <input>
        <sumo-net-file value="C:\Users\zhangsong\Desktop\temp\er3.net.xml"/>
    </input>

    <output>
        <output-file value="C:\Users\zhangsong\Desktop\temp\er3.net.xml"/>
    </output>

    <processing>
        <geometry.min-radius.fix.railways value="false"/>
        <geometry.max-grade.fix value="false"/>
        <offset.disable-normalization value="true"/>
        <lefthand value="false"/>
    </processing>

    <junctions>
        <no-turnarounds value="true"/>
        <junctions.corner-detail value="5"/>
        <junctions.limit-turn-speed value="5.5"/>
        <rectangular-lane-cut value="false"/>
    </junctions>

    <pedestrian>
        <walkingareas value="false"/>
    </pedestrian>

    <report>
        <aggregate-warnings value="5"/>
    </report>

</configuration>
-->

<net version="1.9" junctionCornerDetail="5" limitTurnSpeed="5.50" xmlns:xsi="http://www.w3.org/2001/XMLSchema-instance" xsi:noNamespaceSchemaLocation="http://sumo.dlr.de/xsd/net_file.xsd">

    <location netOffset="0.00,0.00" convBoundary="0.00,-600.00,1800.00,600.00" origBoundary="-10000000000.00,-10000000000.00,10000000000.00,10000000000.00" projParameter="!"/>

    <edge id=":gneJ1_0" function="internal">
        <lane id=":gneJ1_0_0" index="0" speed="6.51" length="9.03" shape="598.40,7.20 598.05,4.75 597.00,3.00 595.25,1.95 592.80,1.60"/>
    </edge>
    <edge id=":gneJ1_1" function="internal">
        <lane id=":gneJ1_1_0" index="0" speed="13.89" length="14.40" shape="598.40,7.20 598.40,-7.20"/>
    </edge>
    <edge id=":gneJ1_2" function="internal">
        <lane id=":gneJ1_2_0" index="0" speed="8.00" length="5.93" shape="598.40,7.20 598.95,3.35 600.00,1.60"/>
    </edge>
    <edge id=":gneJ1_12" function="internal">
        <lane id=":gneJ1_12_0" index="0" speed="8.00" length="8.26" shape="600.00,1.60 600.60,0.60 603.35,-1.05 607.20,-1.60"/>
    </edge>
    <edge id=":gneJ1_3" function="internal">
        <lane id=":gneJ1_3_0" index="0" speed="6.51" length="9.03" shape="607.20,1.60 604.75,1.95 603.00,3.00 601.95,4.75 601.60,7.20"/>
    </edge>
    <edge id=":gneJ1_4" function="internal">
        <lane id=":gneJ1_4_0" index="0" speed="13.89" length="14.40" shape="607.20,1.60 592.80,1.60"/>
    </edge>
    <edge id=":gneJ1_5" function="internal">
        <lane id=":gneJ1_5_0" index="0" speed="8.00" length="5.93" shape="607.20,1.60 603.35,1.05 601.60,0.00"/>
    </edge>
    <edge id=":gneJ1_13" function="internal">
        <lane id=":gneJ1_13_0" index="0" speed="8.00" length="8.26" shape="601.60,0.00 600.60,-0.60 598.95,-3.35 598.40,-7.20"/>
    </edge>
    <edge id=":gneJ1_6" function="internal">
        <lane id=":gneJ1_6_0" index="0" speed="6.51" length="9.03" shape="601.60,-7.20 601.95,-4.75 603.00,-3.00 604.75,-1.95 607.20,-1.60"/>
    </edge>
    <edge id=":gneJ1_7" function="internal">
        <lane id=":gneJ1_7_0" index="0" speed="13.89" length="14.40" shape="601.60,-7.20 601.60,7.20"/>
    </edge>
    <edge id=":gneJ1_8" function="internal">
        <lane id=":gneJ1_8_0" index="0" speed="8.00" length="5.93" shape="601.60,-7.20 601.05,-3.35 600.00,-1.60"/>
    </edge>
    <edge id=":gneJ1_14" function="internal">
        <lane id=":gneJ1_14_0" index="0" speed="8.00" length="8.26" shape="600.00,-1.60 599.40,-0.60 596.65,1.05 592.80,1.60"/>
    </edge>
    <edge id=":gneJ1_9" function="internal">
        <lane id=":gneJ1_9_0" index="0" speed="6.51" length="9.03" shape="592.80,-1.60 595.25,-1.95 597.00,-3.00 598.05,-4.75 598.40,-7.20"/>
    </edge>
    <edge id=":gneJ1_10" function="internal">
        <lane id=":gneJ1_10_0" index="0" speed="13.89" length="14.40" shape="592.80,-1.60 607.20,-1.60"/>
    </edge>
    <edge id=":gneJ1_11" function="internal">
        <lane id=":gneJ1_11_0" index="0" speed="8.00" length="5.93" shape="592.80,-1.60 596.65,-1.05 598.40,-0.00"/>
    </edge>
    <edge id=":gneJ1_15" function="internal">
        <lane id=":gneJ1_15_0" index="0" speed="8.00" length="8.26" shape="598.40,-0.00 599.40,0.60 601.05,3.35 601.60,7.20"/>
    </edge>
    <edge id=":gneJ2_0" function="internal">
        <lane id=":gneJ2_0_0" index="0" speed="6.51" length="9.03" shape="1198.40,7.20 1198.05,4.75 1197.00,3.00 1195.25,1.95 1192.80,1.60"/>
    </edge>
    <edge id=":gneJ2_1" function="internal">
        <lane id=":gneJ2_1_0" index="0" speed="13.89" length="14.40" shape="1198.40,7.20 1198.40,-7.20"/>
    </edge>
    <edge id=":gneJ2_2" function="internal">
        <lane id=":gneJ2_2_0" index="0" speed="8.00" length="5.93" shape="1198.40,7.20 1198.95,3.35 1200.00,1.60"/>
    </edge>
    <edge id=":gneJ2_12" function="internal">
        <lane id=":gneJ2_12_0" index="0" speed="8.00" length="8.26" shape="1200.00,1.60 1200.60,0.60 1203.35,-1.05 1207.20,-1.60"/>
    </edge>
    <edge id=":gneJ2_3" function="internal">
        <lane id=":gneJ2_3_0" index="0" speed="6.51" length="9.03" shape="1207.20,1.60 1204.75,1.95 1203.00,3.00 1201.95,4.75 1201.60,7.20"/>
    </edge>
    <edge id=":gneJ2_4" function="internal">
        <lane id=":gneJ2_4_0" index="0" speed="13.89" length="14.40" shape="1207.20,1.60 1192.80,1.60"/>
    </edge>
    <edge id=":gneJ2_5" function="internal">
        <lane id=":gneJ2_5_0" index="0" speed="8.00" length="5.93" shape="1207.20,1.60 1203.35,1.05 1201.60,-0.00"/>
    </edge>
    <edge id=":gneJ2_13" function="internal">
        <lane id=":gneJ2_13_0" index="0" speed="8.00" length="8.26" shape="1201.60,-0.00 1200.60,-0.60 1198.95,-3.35 1198.40,-7.20"/>
    </edge>
    <edge id=":gneJ2_6" function="internal">
        <lane id=":gneJ2_6_0" index="0" speed="6.51" length="9.03" shape="1201.60,-7.20 1201.95,-4.75 1203.00,-3.00 1204.75,-1.95 1207.20,-1.60"/>
    </edge>
    <edge id=":gneJ2_7" function="internal">
        <lane id=":gneJ2_7_0" index="0" speed="13.89" length="14.40" shape="1201.60,-7.20 1201.60,7.20"/>
    </edge>
    <edge id=":gneJ2_8" function="internal">
        <lane id=":gneJ2_8_0" index="0" speed="8.00" length="5.93" shape="1201.60,-7.20 1201.05,-3.35 1200.00,-1.60"/>
    </edge>
    <edge id=":gneJ2_14" function="internal">
        <lane id=":gneJ2_14_0" index="0" speed="8.00" length="8.26" shape="1200.00,-1.60 1199.40,-0.60 1196.65,1.05 1192.80,1.60"/>
    </edge>
    <edge id=":gneJ2_9" function="internal">
        <lane id=":gneJ2_9_0" index="0" speed="6.51" length="9.03" shape="1192.80,-1.60 1195.25,-1.95 1197.00,-3.00 1198.05,-4.75 1198.40,-7.20"/>
    </edge>
    <edge id=":gneJ2_10" function="internal">
        <lane id=":gneJ2_10_0" index="0" speed="13.89" length="14.40" shape="1192.80,-1.60 1207.20,-1.60"/>
    </edge>
    <edge id=":gneJ2_11" function="internal">
        <lane id=":gneJ2_11_0" index="0" speed="8.00" length="5.93" shape="1192.80,-1.60 1196.65,-1.05 1198.40,0.00"/>
    </edge>
    <edge id=":gneJ2_15" function="internal">
        <lane id=":gneJ2_15_0" index="0" speed="8.00" length="8.26" shape="1198.40,0.00 1199.40,0.60 1201.05,3.35 1201.60,7.20"/>
    </edge>

    <edge id="-gneE0" from="gneJ1" to="gneJ0" priority="-1">
        <lane id="-gneE0_0" index="0" speed="13.89" length="592.80" shape="592.80,1.60 0.00,1.60"/>
    </edge>
    <edge id="-gneE1" from="gneJ2" to="gneJ1" priority="-1">
        <lane id="-gneE1_0" index="0" speed="13.89" length="585.60" shape="1192.80,1.60 607.20,1.60"/>
    </edge>
    <edge id="-gneE2" from="gneJ3" to="gneJ2" priority="-1">
        <lane id="-gneE2_0" index="0" speed="13.89" length="592.80" shape="1800.00,1.60 1207.20,1.60"/>
    </edge>
    <edge id="-gneE3" from="gneJ1" to="gneJ4" priority="-1">
        <lane id="-gneE3_0" index="0" speed="13.89" length="592.80" shape="601.60,7.20 601.60,600.00"/>
    </edge>
    <edge id="-gneE4" from="gneJ5" to="gneJ1" priority="-1">
        <lane id="-gneE4_0" index="0" speed="13.89" length="592.80" shape="601.60,-600.00 601.60,-7.20"/>
    </edge>
    <edge id="-gneE5" from="gneJ2" to="gneJ6" priority="-1">
        <lane id="-gneE5_0" index="0" speed="13.89" length="592.80" shape="1201.60,7.20 1201.60,600.00"/>
    </edge>
    <edge id="-gneE6" from="gneJ7" to="gneJ2" priority="-1">
        <lane id="-gneE6_0" index="0" speed="13.89" length="592.80" shape="1201.60,-600.00 1201.60,-7.20"/>
    </edge>
    <edge id="gneE0" from="gneJ0" to="gneJ1" priority="-1">
        <lane id="gneE0_0" index="0" speed="13.89" length="592.80" shape="0.00,-1.60 592.80,-1.60"/>
    </edge>
    <edge id="gneE1" from="gneJ1" to="gneJ2" priority="-1">
        <lane id="gneE1_0" index="0" speed="13.89" length="585.60" shape="607.20,-1.60 1192.80,-1.60"/>
    </edge>
    <edge id="gneE2" from="gneJ2" to="gneJ3" priority="-1">
        <lane id="gneE2_0" index="0" speed="13.89" length="592.80" shape="1207.20,-1.60 1800.00,-1.60"/>
    </edge>
    <edge id="gneE3" from="gneJ4" to="gneJ1" priority="-1">
        <lane id="gneE3_0" index="0" speed="13.89" length="592.80" shape="598.40,600.00 598.40,7.20"/>
    </edge>
    <edge id="gneE4" from="gneJ1" to="gneJ5" priority="-1">
        <lane id="gneE4_0" index="0" speed="13.89" length="592.80" shape="598.40,-7.20 598.40,-600.00"/>
    </edge>
    <edge id="gneE5" from="gneJ6" to="gneJ2" priority="-1">
        <lane id="gneE5_0" index="0" speed="13.89" length="592.80" shape="1198.40,600.00 1198.40,7.20"/>
    </edge>
    <edge id="gneE6" from="gneJ2" to="gneJ7" priority="-1">
        <lane id="gneE6_0" index="0" speed="13.89" length="592.80" shape="1198.40,-7.20 1198.40,-600.00"/>
    </edge>

    <tlLogic id="gneJ1" type="static" programID="0" offset="0">
        <phase duration="42" state="GGgrrrGGgrrr"/>
        <phase duration="3"  state="yyyrrryyyrrr"/>
        <phase duration="42" state="rrrGGgrrrGGg"/>
        <phase duration="3"  state="rrryyyrrryyy"/>
    </tlLogic>
    <tlLogic id="gneJ2" type="static" programID="0" offset="0">
        <phase duration="42" state="GGgrrrGGgrrr"/>
        <phase duration="3"  state="yyyrrryyyrrr"/>
        <phase duration="42" state="rrrGGgrrrGGg"/>
        <phase duration="3"  state="rrryyyrrryyy"/>
    </tlLogic>

    <junction id="gneJ0" type="dead_end" x="0.00" y="0.00" incLanes="-gneE0_0" intLanes="" shape="0.00,0.00 0.00,3.20 0.00,0.00"/>
    <junction id="gneJ1" type="traffic_light" x="600.00" y="0.00" incLanes="gneE3_0 -gneE1_0 -gneE4_0 gneE0_0" intLanes=":gneJ1_0_0 :gneJ1_1_0 :gneJ1_12_0 :gneJ1_3_0 :gneJ1_4_0 :gneJ1_13_0 :gneJ1_6_0 :gneJ1_7_0 :gneJ1_14_0 :gneJ1_9_0 :gneJ1_10_0 :gneJ1_15_0" shape="596.80,7.20 603.20,7.20 603.64,4.98 604.20,4.20 604.98,3.64 605.98,3.31 607.20,3.20 607.20,-3.20 604.98,-3.64 604.20,-4.20 603.64,-4.98 603.31,-5.98 603.20,-7.20 596.80,-7.20 596.36,-4.98 595.80,-4.20 595.02,-3.64 594.02,-3.31 592.80,-3.20 592.80,3.20 595.02,3.64 595.80,4.20 596.36,4.98 596.69,5.98">
        <request index="0"  response="000000000000" foes="000100010000" cont="0"/>
        <request index="1"  response="100000100000" foes="111100110000" cont="0"/>
        <request index="2"  response="100011100000" foes="110011110000" cont="1"/>
        <request index="3"  response="000010000000" foes="100010000000" cont="0"/>
        <request index="4"  response="000110000111" foes="100110000111" cont="0"/>
        <request index="5"  response="011110000110" foes="011110000110" cont="1"/>
        <request index="6"  response="000000000000" foes="010000000100" cont="0"/>
        <request index="7"  response="100000100000" foes="110000111100" cont="0"/>
        <request index="8"  response="100000100011" foes="110000110011" cont="1"/>
        <request index="9"  response="000000000010" foes="000000100010" cont="0"/>
        <request index="10" response="000111000110" foes="000111100110" cont="0"/>
        <request index="11" response="000110011110" foes="000110011110" cont="1"/>
    </junction>
    <junction id="gneJ2" type="traffic_light" x="1200.00" y="0.00" incLanes="gneE5_0 -gneE2_0 -gneE6_0 gneE1_0" intLanes=":gneJ2_0_0 :gneJ2_1_0 :gneJ2_12_0 :gneJ2_3_0 :gneJ2_4_0 :gneJ2_13_0 :gneJ2_6_0 :gneJ2_7_0 :gneJ2_14_0 :gneJ2_9_0 :gneJ2_10_0 :gneJ2_15_0" shape="1196.80,7.20 1203.20,7.20 1203.64,4.98 1204.20,4.20 1204.98,3.64 1205.98,3.31 1207.20,3.20 1207.20,-3.20 1204.98,-3.64 1204.20,-4.20 1203.64,-4.98 1203.31,-5.98 1203.20,-7.20 1196.80,-7.20 1196.36,-4.98 1195.80,-4.20 1195.02,-3.64 1194.02,-3.31 1192.80,-3.20 1192.80,3.20 1195.02,3.64 1195.80,4.20 1196.36,4.98 1196.69,5.98">
        <request index="0"  response="000000000000" foes="000100010000" cont="0"/>
        <request index="1"  response="100000100000" foes="111100110000" cont="0"/>
        <request index="2"  response="100011100000" foes="110011110000" cont="1"/>
        <request index="3"  response="000010000000" foes="100010000000" cont="0"/>
        <request index="4"  response="000110000111" foes="100110000111" cont="0"/>
        <request index="5"  response="011110000110" foes="011110000110" cont="1"/>
        <request index="6"  response="000000000000" foes="010000000100" cont="0"/>
        <request index="7"  response="100000100000" foes="110000111100" cont="0"/>
        <request index="8"  response="100000100011" foes="110000110011" cont="1"/>
        <request index="9"  response="000000000010" foes="000000100010" cont="0"/>
        <request index="10" response="000111000110" foes="000111100110" cont="0"/>
        <request index="11" response="000110011110" foes="000110011110" cont="1"/>
    </junction>
    <junction id="gneJ3" type="dead_end" x="1800.00" y="0.00" incLanes="gneE2_0" intLanes="" shape="1800.00,0.00 1800.00,-3.20 1800.00,0.00"/>
    <junction id="gneJ4" type="dead_end" x="600.00" y="600.00" incLanes="-gneE3_0" intLanes="" shape="600.00,600.00 603.20,600.00 600.00,600.00"/>
    <junction id="gneJ5" type="dead_end" x="600.00" y="-600.00" incLanes="gneE4_0" intLanes="" shape="600.00,-600.00 596.80,-600.00 600.00,-600.00"/>
    <junction id="gneJ6" type="dead_end" x="1200.00" y="600.00" incLanes="-gneE5_0" intLanes="" shape="1200.00,600.00 1203.20,600.00 1200.00,600.00"/>
    <junction id="gneJ7" type="dead_end" x="1200.00" y="-600.00" incLanes="gneE6_0" intLanes="" shape="1200.00,-600.00 1196.80,-600.00 1200.00,-600.00"/>

    <junction id=":gneJ1_12_0" type="internal" x="600.00" y="1.60" incLanes=":gneJ1_2_0 -gneE4_0" intLanes=":gneJ1_4_0 :gneJ1_5_0 :gneJ1_6_0 :gneJ1_7_0 :gneJ1_10_0 :gneJ1_11_0"/>
    <junction id=":gneJ1_13_0" type="internal" x="601.60" y="0.00" incLanes=":gneJ1_5_0 gneE0_0" intLanes=":gneJ1_1_0 :gneJ1_2_0 :gneJ1_7_0 :gneJ1_8_0 :gneJ1_9_0 :gneJ1_10_0"/>
    <junction id=":gneJ1_14_0" type="internal" x="600.00" y="-1.60" incLanes=":gneJ1_8_0 gneE3_0" intLanes=":gneJ1_0_0 :gneJ1_1_0 :gneJ1_4_0 :gneJ1_5_0 :gneJ1_10_0 :gneJ1_11_0"/>
    <junction id=":gneJ1_15_0" type="internal" x="598.40" y="-0.00" incLanes=":gneJ1_11_0 -gneE1_0" intLanes=":gneJ1_1_0 :gneJ1_2_0 :gneJ1_3_0 :gneJ1_4_0 :gneJ1_7_0 :gneJ1_8_0"/>
    <junction id=":gneJ2_12_0" type="internal" x="1200.00" y="1.60" incLanes=":gneJ2_2_0 -gneE6_0" intLanes=":gneJ2_4_0 :gneJ2_5_0 :gneJ2_6_0 :gneJ2_7_0 :gneJ2_10_0 :gneJ2_11_0"/>
    <junction id=":gneJ2_13_0" type="internal" x="1201.60" y="-0.00" incLanes=":gneJ2_5_0 gneE1_0" intLanes=":gneJ2_1_0 :gneJ2_2_0 :gneJ2_7_0 :gneJ2_8_0 :gneJ2_9_0 :gneJ2_10_0"/>
    <junction id=":gneJ2_14_0" type="internal" x="1200.00" y="-1.60" incLanes=":gneJ2_8_0 gneE5_0" intLanes=":gneJ2_0_0 :gneJ2_1_0 :gneJ2_4_0 :gneJ2_5_0 :gneJ2_10_0 :gneJ2_11_0"/>
    <junction id=":gneJ2_15_0" type="internal" x="1198.40" y="0.00" incLanes=":gneJ2_11_0 -gneE2_0" intLanes=":gneJ2_1_0 :gneJ2_2_0 :gneJ2_3_0 :gneJ2_4_0 :gneJ2_7_0 :gneJ2_8_0"/>

    <connection from="-gneE1" to="-gneE3" fromLane="0" toLane="0" via=":gneJ1_3_0" tl="gneJ1" linkIndex="3" dir="r" state="o"/>
    <connection from="-gneE1" to="-gneE0" fromLane="0" toLane="0" via=":gneJ1_4_0" tl="gneJ1" linkIndex="4" dir="s" state="o"/>
    <connection from="-gneE1" to="gneE4" fromLane="0" toLane="0" via=":gneJ1_5_0" tl="gneJ1" linkIndex="5" dir="l" state="o"/>
    <connection from="-gneE2" to="-gneE5" fromLane="0" toLane="0" via=":gneJ2_3_0" tl="gneJ2" linkIndex="3" dir="r" state="o"/>
    <connection from="-gneE2" to="-gneE1" fromLane="0" toLane="0" via=":gneJ2_4_0" tl="gneJ2" linkIndex="4" dir="s" state="o"/>
    <connection from="-gneE2" to="gneE6" fromLane="0" toLane="0" via=":gneJ2_5_0" tl="gneJ2" linkIndex="5" dir="l" state="o"/>
    <connection from="-gneE4" to="gneE1" fromLane="0" toLane="0" via=":gneJ1_6_0" tl="gneJ1" linkIndex="6" dir="r" state="O"/>
    <connection from="-gneE4" to="-gneE3" fromLane="0" toLane="0" via=":gneJ1_7_0" tl="gneJ1" linkIndex="7" dir="s" state="O"/>
    <connection from="-gneE4" to="-gneE0" fromLane="0" toLane="0" via=":gneJ1_8_0" tl="gneJ1" linkIndex="8" dir="l" state="o"/>
    <connection from="-gneE6" to="gneE2" fromLane="0" toLane="0" via=":gneJ2_6_0" tl="gneJ2" linkIndex="6" dir="r" state="O"/>
    <connection from="-gneE6" to="-gneE5" fromLane="0" toLane="0" via=":gneJ2_7_0" tl="gneJ2" linkIndex="7" dir="s" state="O"/>
    <connection from="-gneE6" to="-gneE1" fromLane="0" toLane="0" via=":gneJ2_8_0" tl="gneJ2" linkIndex="8" dir="l" state="o"/>
    <connection from="gneE0" to="gneE4" fromLane="0" toLane="0" via=":gneJ1_9_0" tl="gneJ1" linkIndex="9" dir="r" state="o"/>
    <connection from="gneE0" to="gneE1" fromLane="0" toLane="0" via=":gneJ1_10_0" tl="gneJ1" linkIndex="10" dir="s" state="o"/>
    <connection from="gneE0" to="-gneE3" fromLane="0" toLane="0" via=":gneJ1_11_0" tl="gneJ1" linkIndex="11" dir="l" state="o"/>
    <connection from="gneE1" to="gneE6" fromLane="0" toLane="0" via=":gneJ2_9_0" tl="gneJ2" linkIndex="9" dir="r" state="o"/>
    <connection from="gneE1" to="gneE2" fromLane="0" toLane="0" via=":gneJ2_10_0" tl="gneJ2" linkIndex="10" dir="s" state="o"/>
    <connection from="gneE1" to="-gneE5" fromLane="0" toLane="0" via=":gneJ2_11_0" tl="gneJ2" linkIndex="11" dir="l" state="o"/>
    <connection from="gneE3" to="-gneE0" fromLane="0" toLane="0" via=":gneJ1_0_0" tl="gneJ1" linkIndex="0" dir="r" state="O"/>
    <connection from="gneE3" to="gneE4" fromLane="0" toLane="0" via=":gneJ1_1_0" tl="gneJ1" linkIndex="1" dir="s" state="O"/>
    <connection from="gneE3" to="gneE1" fromLane="0" toLane="0" via=":gneJ1_2_0" tl="gneJ1" linkIndex="2" dir="l" state="o"/>
    <connection from="gneE5" to="-gneE1" fromLane="0" toLane="0" via=":gneJ2_0_0" tl="gneJ2" linkIndex="0" dir="r" state="O"/>
    <connection from="gneE5" to="gneE6" fromLane="0" toLane="0" via=":gneJ2_1_0" tl="gneJ2" linkIndex="1" dir="s" state="O"/>
    <connection from="gneE5" to="gneE2" fromLane="0" toLane="0" via=":gneJ2_2_0" tl="gneJ2" linkIndex="2" dir="l" state="o"/>

    <connection from=":gneJ1_0" to="-gneE0" fromLane="0" toLane="0" dir="r" state="M"/>
    <connection from=":gneJ1_1" to="gneE4" fromLane="0" toLane="0" dir="s" state="M"/>
    <connection from=":gneJ1_2" to="gneE1" fromLane="0" toLane="0" via=":gneJ1_12_0" dir="l" state="m"/>
    <connection from=":gneJ1_12" to="gneE1" fromLane="0" toLane="0" dir="l" state="M"/>
    <connection from=":gneJ1_3" to="-gneE3" fromLane="0" toLane="0" dir="r" state="M"/>
    <connection from=":gneJ1_4" to="-gneE0" fromLane="0" toLane="0" dir="s" state="M"/>
    <connection from=":gneJ1_5" to="gneE4" fromLane="0" toLane="0" via=":gneJ1_13_0" dir="l" state="m"/>
    <connection from=":gneJ1_13" to="gneE4" fromLane="0" toLane="0" dir="l" state="M"/>
    <connection from=":gneJ1_6" to="gneE1" fromLane="0" toLane="0" dir="r" state="M"/>
    <connection from=":gneJ1_7" to="-gneE3" fromLane="0" toLane="0" dir="s" state="M"/>
    <connection from=":gneJ1_8" to="-gneE0" fromLane="0" toLane="0" via=":gneJ1_14_0" dir="l" state="m"/>
    <connection from=":gneJ1_14" to="-gneE0" fromLane="0" toLane="0" dir="l" state="M"/>
    <connection from=":gneJ1_9" to="gneE4" fromLane="0" toLane="0" dir="r" state="M"/>
    <connection from=":gneJ1_10" to="gneE1" fromLane="0" toLane="0" dir="s" state="M"/>
    <connection from=":gneJ1_11" to="-gneE3" fromLane="0" toLane="0" via=":gneJ1_15_0" dir="l" state="m"/>
    <connection from=":gneJ1_15" to="-gneE3" fromLane="0" toLane="0" dir="l" state="M"/>
    <connection from=":gneJ2_0" to="-gneE1" fromLane="0" toLane="0" dir="r" state="M"/>
    <connection from=":gneJ2_1" to="gneE6" fromLane="0" toLane="0" dir="s" state="M"/>
    <connection from=":gneJ2_2" to="gneE2" fromLane="0" toLane="0" via=":gneJ2_12_0" dir="l" state="m"/>
    <connection from=":gneJ2_12" to="gneE2" fromLane="0" toLane="0" dir="l" state="M"/>
    <connection from=":gneJ2_3" to="-gneE5" fromLane="0" toLane="0" dir="r" state="M"/>
    <connection from=":gneJ2_4" to="-gneE1" fromLane="0" toLane="0" dir="s" state="M"/>
    <connection from=":gneJ2_5" to="gneE6" fromLane="0" toLane="0" via=":gneJ2_13_0" dir="l" state="m"/>
    <connection from=":gneJ2_13" to="gneE6" fromLane="0" toLane="0" dir="l" state="M"/>
    <connection from=":gneJ2_6" to="gneE2" fromLane="0" toLane="0" dir="r" state="M"/>
    <connection from=":gneJ2_7" to="-gneE5" fromLane="0" toLane="0" dir="s" state="M"/>
    <connection from=":gneJ2_8" to="-gneE1" fromLane="0" toLane="0" via=":gneJ2_14_0" dir="l" state="m"/>
    <connection from=":gneJ2_14" to="-gneE1" fromLane="0" toLane="0" dir="l" state="M"/>
    <connection from=":gneJ2_9" to="gneE6" fromLane="0" toLane="0" dir="r" state="M"/>
    <connection from=":gneJ2_10" to="gneE2" fromLane="0" toLane="0" dir="s" state="M"/>
    <connection from=":gneJ2_11" to="-gneE5" fromLane="0" toLane="0" via=":gneJ2_15_0" dir="l" state="m"/>
    <connection from=":gneJ2_15" to="-gneE5" fromLane="0" toLane="0" dir="l" state="M"/>

</net>
