<?xml version="1.0" encoding="UTF-8"?>

<additional xmlns:xsi="http://www.w3.org/2001/XMLSchema-instance" xsi:noNamespaceSchemaLocation="http://sumo.dlr.de/xsd/additional_file.xsd">
    <poly id="poly_0" color="red" fill="1" layer="0.00" shape="800.000000,500.000000 800.000000,100.000000 1000.000000,100.000000 1000.000000,500.000000 800.000000,500.000000"/>
    <poly id="poly_1" color="red" fill="1" layer="0.00" shape="800.000000,-100.000000 800.000000,-500.000000 1000.000000,-500.000000 1000.000000,-100.000000 800.000000,-100.000000"/>
</additional>
