[General]
cmdenv-express-mode = true
cmdenv-autoflush = true
cmdenv-status-frequency = 1s
**.cmdenv-log-level = info

image-path = ../../images

network = RSUExampleScenario

##########################################################
#            Simulation parameters                       #
##########################################################
debug-on-errors = true
print-undisposed = true

sim-time-limit = 300s

**.scalar-recording = true
**.vector-recording = true
*.playgroundSizeZ = 50m
#Scenario 1
#*.playgroundSizeX = 2100m
#*.playgroundSizeY = 100m

#Scenario 2
*.playgroundSizeX = 2100m
*.playgroundSizeY = 1300m

##########################################################
# Annotation parameters                                  #
##########################################################
#*.annotations.draw = true

##########################################################
# Obstacle parameters                                    #
##########################################################
#*.obstacles.obstacles = xmldoc("config.xml", "//AnalogueModel[@type='SimpleObstacleShadowing']/obstacles")

##########################################################
#            TraCIScenarioManager parameters             #
##########################################################
*.manager.updateInterval = 1s
*.manager.host = "localhost"
*.manager.port = 9999
*.manager.autoShutdown = true
#*.manager.launchConfig = xmldoc("sc1.launchd.xml")
*.manager.launchConfig = xmldoc("sc2.launchd.xml")
*.manager.moduleType = "vtype0=org.car2x.veins.nodes.Car1"
*.manager.moduleName = "vtype0=car1"
*.manager.moduleDisplayString = "vtype0='i=veins/node/car;is=vs'"

##########################################################
#            11p specific parameters                     #
#                                                        #
#                    NIC-Settings                        #
##########################################################
*.connectionManager.sendDirect = true
*.connectionManager.maxInterfDist = 300m
*.connectionManager.drawMaxIntfDist = false

*.**.nic.mac1609_4.useServiceChannel = false

*.**.nic.mac1609_4.txPower = 20mW
*.**.nic.mac1609_4.bitrate = 6Mbps
*.**.nic.phy80211p.minPowerLevel = -110dBm

*.**.nic.phy80211p.useNoiseFloor = true
*.**.nic.phy80211p.noiseFloor = -98dBm

*.**.nic.phy80211p.decider = xmldoc("config.xml")
*.**.nic.phy80211p.analogueModels = xmldoc("config.xml")
*.**.nic.phy80211p.usePropagationDelay = true

*.**.nic.phy80211p.antenna = xmldoc("antenna.xml", "/root/Antenna[@id='monopole']")
*.car1[*].nic.phy80211p.antennaOffsetY = 0 m
*.car1[*].nic.phy80211p.antennaOffsetZ = 1.895 m
##########################################################
#                      App Layer                         #
##########################################################
*.car1[*].applType = "TraCIDemo11p"
*.car1[*].appl.headerLength = 80 bit
*.car1[*].appl.sendBeacons = false
*.car1[*].appl.dataOnSch = false
*.car1[*].appl.beaconInterval = 1s


##########################################################
#                      Mobility                          #
##########################################################
*.car1[*].veinsmobility.x = 0
*.car1[*].veinsmobility.y = 0
*.car1[*].veinsmobility.z = 0
*.car1[*].veinsmobility.setHostSpeed = false

[Config Default]
*.car1[*].appl.sendBeacons = true




