<configuration xmlns:xsi="http://www.w3.org/2001/XMLSchema-instance" xsi:noNamespaceSchemaLocation="http://sumo.dlr.de/xsd/sumoConfiguration.xsd">

    <input>
        <net-file value="sc1.net.xml"/>
        <route-files value="sc1.rou1.xml"/>
        <additional-files value="sc1.poly.xml"/>
    </input>
      <time>
        <begin value="0"/>
        <end value="300"/>
    </time>
    <report>
        <xml-validation value="never"/>
        <xml-validation.net value="never"/>
        <no-step-log value="true"/>
    </report>

    <gui_only>
        <start value="false"/>
    </gui_only>

</configuration>
