<?xml version="1.0" encoding="UTF-8"?>

<!-- generated on 2022-05-26 19:00:42 by Eclipse SUMO netedit Version 1.10.0
<configuration xmlns:xsi="http://www.w3.org/2001/XMLSchema-instance" xsi:noNamespaceSchemaLocation="http://sumo.dlr.de/xsd/netconvertConfiguration.xsd">

    <input>
        <sumo-net-file value="C:\Users\zhangsong\Desktop\newtrust\er1.net.xml"/>
    </input>

    <output>
        <output-file value="C:\Users\zhangsong\Desktop\newtrust\er1.net.xml"/>
    </output>

    <processing>
        <geometry.min-radius.fix.railways value="false"/>
        <geometry.max-grade.fix value="false"/>
        <offset.disable-normalization value="true"/>
        <lefthand value="false"/>
    </processing>

    <junctions>
        <no-internal-links value="true"/>
        <no-turnarounds value="true"/>
        <junctions.corner-detail value="5"/>
        <junctions.limit-turn-speed value="5.5"/>
        <rectangular-lane-cut value="false"/>
    </junctions>

    <pedestrian>
        <walkingareas value="false"/>
    </pedestrian>

    <netedit>
        <additional-files value="C:\Users\zhangsong\Desktop\newtrust\dect1.xml"/>
    </netedit>

    <report>
        <aggregate-warnings value="5"/>
    </report>

</configuration>
-->

<additional xmlns:xsi="http://www.w3.org/2001/XMLSchema-instance" xsi:noNamespaceSchemaLocation="http://sumo.dlr.de/xsd/additional_file.xsd">
    <e1Detector id="e1Detector_-gneE0_0_1" lane="-gneE0_0" pos="-300.00" freq="5.00" file="Detector/e1.xml"/>
    <e1Detector id="e1Detector_-gneE0_0_11" lane="-gneE0_0" pos="-1800.00" freq="5.00" file="Detector/e11.xml"/>
    <e1Detector id="e1Detector_-gneE0_0_3" lane="-gneE0_0" pos="-600.00" freq="5.00" file="Detector/e3.xml"/>
    <e1Detector id="e1Detector_-gneE0_0_5" lane="-gneE0_0" pos="-900.00" freq="5.00" file="Detector/e5.xml"/>
    <e1Detector id="e1Detector_-gneE0_0_7" lane="-gneE0_0" pos="-1200.00" freq="5.00" file="Detector/e7.xml"/>
    <e1Detector id="e1Detector_-gneE0_0_9" lane="-gneE0_0" pos="-1500.00" freq="5.00" file="Detector/e9.xml"/>
    <e1Detector id="e1Detector_gneE0_0_0" lane="gneE0_0" pos="300.00" freq="5.00" file="Detector/e0.xml"/>
    <e1Detector id="e1Detector_gneE0_0_10" lane="gneE0_0" pos="1800.00" freq="5.00" file="Detector/e10.xml"/>
    <e1Detector id="e1Detector_gneE0_0_2" lane="gneE0_0" pos="600.00" freq="5.00" file="Detector/e2.xml"/>
    <e1Detector id="e1Detector_gneE0_0_4" lane="gneE0_0" pos="900.00" freq="5.00" file="Detector/e4.xml"/>
    <e1Detector id="e1Detector_gneE0_0_6" lane="gneE0_0" pos="1200.00" freq="5.00" file="Detector/e6.xml"/>
    <e1Detector id="e1Detector_gneE0_0_8" lane="gneE0_0" pos="1500.00" freq="5.00" file="Detector/e8.xml"/>
</additional>
